@<TRIPOS>MOLECULE
TFE
    9     8     1     0     0
SMALL
bcc


@<TRIPOS>ATOM
      1 F1           0.4780    -0.8880     1.0180 f          1 TFE      -0.236967
      2 F2           1.4980     0.8240     0.1400 f          1 TFE      -0.236967
      3 F3           0.6940    -0.7350    -1.1430 f          1 TFE      -0.236967
      4 O1          -2.0190    -0.0910     0.1580 oh         1 TFE      -0.565800
      5 C1          -0.9480     0.7770    -0.0820 c3         1 TFE       0.103400
      6 C2           0.4130     0.0020    -0.0250 c3         1 TFE       0.580900
      7 H1          -0.9000     1.6080     0.6680 h1         1 TFE       0.087200
      8 H2          -1.0990     1.1730    -1.1200 h1         1 TFE       0.087200
      9 H3          -1.9280    -0.4330     1.0590 ho         1 TFE       0.419000
@<TRIPOS>BOND
     1     1     6 1   
     2     2     6 1   
     3     3     6 1   
     4     4     5 1   
     5     4     9 1   
     6     5     6 1   
     7     5     7 1   
     8     5     8 1   
@<TRIPOS>SUBSTRUCTURE
     1 TFE         1 TEMP              0 ****  ****    0 ROOT
